JB8_3
                    3D
 Structure written by MMmdl.
 41 43  0  0  1  0            999 V2000
   -1.6556    0.1680   -1.8413 C   0  0  2  0  0  0
   -0.6541   -0.7471   -1.1446 C   0  0  1  0  0  0
    0.0000    0.0000    0.0000 C   0  0  1  0  0  0
   -0.6803    1.2872   -0.0000 N   0  0  0  0  0  0
   -1.5958    1.4103   -0.9618 C   0  0  0  0  0  0
   -2.3040    2.3950   -1.1307 O   0  0  0  0  0  0
   -0.7078   -1.0594    0.8604 C   0  0  0  0  0  0
   -1.2893   -1.6769   -0.2095 O   0  0  0  0  0  0
   -0.8006   -1.3012    2.0597 O   0  0  0  0  0  0
    0.3255   -1.4358   -2.0480 C   0  0  0  0  0  0
    1.5000    0.0000    0.0000 C   0  0  2  0  0  0
    2.0000    0.7071    1.2247 C   0  0  1  0  0  0
    1.9600   -1.3011   -0.0000 O   0  0  0  0  0  0
    2.8575   -0.2528    2.0708 C   0  0  0  0  0  0
    3.6773    0.5064    3.1251 C   0  0  0  0  0  0
    4.6187    1.5363    2.4728 C   0  0  0  0  0  0
    3.9363    2.3177    1.3636 C   0  0  0  0  0  0
    2.7679    1.9499    0.8097 C   0  0  0  0  0  0
    1.1218    1.0251    1.7878 H   0  0  0  0  0  0
   -3.0402   -0.4071   -1.8853 C   0  0  0  0  0  0
   -3.9580    0.5519   -2.5839 C   0  0  0  0  0  0
   -5.5970   -0.1435   -2.6287 Cl  0  0  0  0  0  0
   -1.3435    0.4244   -2.8536 H   0  0  0  0  0  0
   -0.5481    1.9796    0.7207 H   0  0  0  0  0  0
    0.7714   -0.7061   -2.7240 H   0  0  0  0  0  0
    1.1078   -1.9011   -1.4483 H   0  0  0  0  0  0
   -0.1909   -2.2005   -2.6282 H   0  0  0  0  0  0
    1.8634    0.5139   -0.8900 H   0  0  0  0  0  0
    2.5281   -1.5485   -0.7849 H   0  0  0  0  0  0
    2.2211   -0.9989    2.5480 H   0  0  0  0  0  0
    3.5382   -0.8019    1.4186 H   0  0  0  0  0  0
    4.2529   -0.1912    3.7345 H   0  0  0  0  0  0
    2.9952    1.0179    3.8058 H   0  0  0  0  0  0
    5.4889    1.0357    2.0469 H   0  0  0  0  0  0
    4.9900    2.2301    3.2277 H   0  0  0  0  0  0
    4.4416    3.2061    1.0121 H   0  0  0  0  0  0
    2.3259    2.5586    0.0338 H   0  0  0  0  0  0
   -3.3962   -0.5756   -0.8689 H   0  0  0  0  0  0
   -3.0236   -1.3534   -2.4260 H   0  0  0  0  0  0
   -3.6153    0.7179   -3.6052 H   0  0  0  0  0  0
   -3.9890    1.4980   -2.0435 H   0  0  0  0  0  0
  1  2  1  0  0  0
  1  5  1  0  0  0
  1 20  1  0  0  0
  1 23  1  0  0  0
  2  3  1  0  0  0
  2  8  1  0  0  0
  2 10  1  0  0  0
  3  4  1  0  0  0
  3  7  1  0  0  0
  3 11  1  0  0  0
  4  5  1  0  0  0
  4 24  1  0  0  0
  5  6  2  0  0  0
  7  8  1  0  0  0
  7  9  2  0  0  0
 10 25  1  0  0  0
 10 26  1  0  0  0
 10 27  1  0  0  0
 11 12  1  0  0  0
 11 13  1  0  0  0
 11 28  1  0  0  0
 12 18  1  0  0  0
 12 14  1  0  0  0
 12 19  1  0  0  0
 13 29  1  0  0  0
 14 15  1  0  0  0
 14 30  1  0  0  0
 14 31  1  0  0  0
 15 16  1  0  0  0
 15 32  1  0  0  0
 15 33  1  0  0  0
 16 17  1  0  0  0
 16 34  1  0  0  0
 16 35  1  0  0  0
 17 18  2  0  0  0
 17 36  1  0  0  0
 18 37  1  0  0  0
 20 21  1  0  0  0
 20 38  1  0  0  0
 20 39  1  0  0  0
 21 22  1  0  0  0
 21 40  1  0  0  0
 21 41  1  0  0  0
M  END
> <i_m_stars>
0

> <s_m_entry_id>
3

> <s_m_entry_name>
JB8_3

> <i_f3d_flags>
0

> <r_f3d_energy>
0

> <chiral flag>
1

> <version>
0

> <s_m_Source_Path>
/home/ah809/Completed_Calculations_M06-2X_Def2TZVP/JB8

> <s_m_Source_File>
JB8_.sdf

> <i_m_Source_File_Index>
1

$$$$
