JB8_6
                    3D
 Structure written by MMmdl.
 41 43  0  0  1  0            999 V2000
   -2.6100   -0.2722    2.1429 C   0  0  2  0  0  0
   -1.7692    0.9813    1.9249 C   0  0  1  0  0  0
   -0.4460    0.5975    1.2941 C   0  0  1  0  0  0
   -0.5718   -0.8378    1.0847 N   0  0  0  0  0  0
   -1.7317   -1.3422    1.5072 C   0  0  0  0  0  0
   -2.0609   -2.5174    1.4065 O   0  0  0  0  0  0
   -0.9711    1.4304    0.1134 C   0  0  0  0  0  0
   -2.1565    1.7233    0.7242 O   0  0  0  0  0  0
   -0.5615    1.7304   -1.0036 O   0  0  0  0  0  0
   -1.6258    1.8763    3.1201 C   0  0  0  0  0  0
    0.7781    1.0979    2.0020 C   0  0  2  0  0  0
    2.0000    0.7071    1.2247 C   0  0  1  0  0  0
    0.8388    0.5430    3.2641 O   0  0  0  0  0  0
    2.8575   -0.2528    2.0708 C   0  0  0  0  0  0
    3.6773    0.5064    3.1251 C   0  0  0  0  0  0
    4.6187    1.5363    2.4728 C   0  0  0  0  0  0
    3.9363    2.3177    1.3636 C   0  0  0  0  0  0
    2.7679    1.9499    0.8097 C   0  0  0  0  0  0
    1.6551    0.1644    0.3438 H   0  0  0  0  0  0
   -2.8645   -0.5156    3.6009 C   0  0  0  0  0  0
   -3.7332    0.5789    4.1464 C   0  0  0  0  0  0
   -4.0269    0.2771    5.8769 Cl  0  0  0  0  0  0
   -3.5642   -0.1636    1.6275 H   0  0  0  0  0  0
    0.1072   -1.3812    0.5748 H   0  0  0  0  0  0
   -1.3375    1.2815    3.9869 H   0  0  0  0  0  0
   -0.8597    2.6261    2.9228 H   0  0  0  0  0  0
   -2.5762    2.3716    3.3192 H   0  0  0  0  0  0
    0.7317    2.1838    2.0843 H   0  0  0  0  0  0
    0.8306    1.2019    4.0163 H   0  0  0  0  0  0
    2.2211   -0.9989    2.5480 H   0  0  0  0  0  0
    3.5382   -0.8019    1.4186 H   0  0  0  0  0  0
    4.2529   -0.1912    3.7345 H   0  0  0  0  0  0
    2.9952    1.0179    3.8058 H   0  0  0  0  0  0
    5.4889    1.0357    2.0469 H   0  0  0  0  0  0
    4.9900    2.2301    3.2277 H   0  0  0  0  0  0
    4.4416    3.2061    1.0121 H   0  0  0  0  0  0
    2.3259    2.5586    0.0338 H   0  0  0  0  0  0
   -1.9162   -0.5285    4.1382 H   0  0  0  0  0  0
   -3.3666   -1.4748    3.7270 H   0  0  0  0  0  0
   -4.6885    0.5921    3.6218 H   0  0  0  0  0  0
   -3.2338    1.5412    4.0342 H   0  0  0  0  0  0
  1  2  1  0  0  0
  1  5  1  0  0  0
  1 20  1  0  0  0
  1 23  1  0  0  0
  2  3  1  0  0  0
  2  8  1  0  0  0
  2 10  1  0  0  0
  3  4  1  0  0  0
  3  7  1  0  0  0
  3 11  1  0  0  0
  4  5  1  0  0  0
  4 24  1  0  0  0
  5  6  2  0  0  0
  7  8  1  0  0  0
  7  9  2  0  0  0
 10 25  1  0  0  0
 10 26  1  0  0  0
 10 27  1  0  0  0
 11 12  1  0  0  0
 11 13  1  0  0  0
 11 28  1  0  0  0
 12 18  1  0  0  0
 12 14  1  0  0  0
 12 19  1  0  0  0
 13 29  1  0  0  0
 14 15  1  0  0  0
 14 30  1  0  0  0
 14 31  1  0  0  0
 15 16  1  0  0  0
 15 32  1  0  0  0
 15 33  1  0  0  0
 16 17  1  0  0  0
 16 34  1  0  0  0
 16 35  1  0  0  0
 17 18  2  0  0  0
 17 36  1  0  0  0
 18 37  1  0  0  0
 20 21  1  0  0  0
 20 38  1  0  0  0
 20 39  1  0  0  0
 21 22  1  0  0  0
 21 40  1  0  0  0
 21 41  1  0  0  0
M  END
> <i_m_stars>
0

> <s_m_entry_id>
6

> <s_m_entry_name>
JB8_6

> <i_f3d_flags>
0

> <r_f3d_energy>
0

> <chiral flag>
1

> <version>
0

> <s_m_Source_Path>
/home/ah809/Completed_Calculations_M06-2X_Def2TZVP/JB8

> <s_m_Source_File>
JB8_.sdf

> <i_m_Source_File_Index>
1

$$$$
